
---------- Begin Simulation Statistics ----------
simSeconds                                   0.009253                       # Number of seconds simulated (Second)
simTicks                                   9253382500                       # Number of ticks simulated (Tick)
finalTick                                  9253382500                       # Number of ticks from beginning of simulation (restored from checkpoints and never reset) (Tick)
simFreq                                  1000000000000                       # The number of ticks per simulated second ((Tick/Second))
hostSeconds                                    168.69                       # Real time elapsed on the host (Second)
hostTickRate                                 54852950                       # The number of ticks simulated per host second (ticks/s) ((Tick/Second))
hostMemory                                    1207060                       # Number of bytes of host memory used (Byte)
simInsts                                     41762875                       # Number of instructions simulated (Count)
simOps                                       70337822                       # Number of ops (including micro ops) simulated (Count)
hostInstRate                                   247565                       # Simulator instruction rate (inst/s) ((Count/Second))
hostOpRate                                     416954                       # Simulator op (including micro ops) rate (op/s) ((Count/Second))
system.clk_domain.clock                           500                       # Clock period in ticks (Tick)
system.clk_domain.voltage_domain.voltage            1                       # Voltage in Volts (Volt)
system.cpu.numCycles                         18506766                       # Number of cpu cycles simulated (Cycle)
system.cpu.numWorkItemsStarted                      0                       # Number of work items this cpu started (Count)
system.cpu.numWorkItemsCompleted                    0                       # Number of work items this cpu completed (Count)
system.cpu.instsAdded                        71430160                       # Number of instructions added to the IQ (excludes non-spec) (Count)
system.cpu.nonSpecInstsAdded                       28                       # Number of non-speculative instructions added to the IQ (Count)
system.cpu.instsIssued                       74873958                       # Number of instructions issued (Count)
system.cpu.squashedInstsIssued                   3129                       # Number of squashed instructions issued (Count)
system.cpu.squashedInstsExamined              1092360                       # Number of squashed instructions iterated over during squash; mainly for profiling (Count)
system.cpu.squashedOperandsExamined           1624644                       # Number of squashed operands that are examined and possibly removed from graph (Count)
system.cpu.squashedNonSpecRemoved                  10                       # Number of squashed non-spec instructions that were removed (Count)
system.cpu.numIssuedDist::samples            18425311                       # Number of insts issued each cycle (Count)
system.cpu.numIssuedDist::mean               4.063647                       # Number of insts issued each cycle (Count)
system.cpu.numIssuedDist::stdev              2.352087                       # Number of insts issued each cycle (Count)
system.cpu.numIssuedDist::underflows                0      0.00%      0.00% # Number of insts issued each cycle (Count)
system.cpu.numIssuedDist::0                   1386489      7.52%      7.52% # Number of insts issued each cycle (Count)
system.cpu.numIssuedDist::1                   2068730     11.23%     18.75% # Number of insts issued each cycle (Count)
system.cpu.numIssuedDist::2                   1140763      6.19%     24.94% # Number of insts issued each cycle (Count)
system.cpu.numIssuedDist::3                   2807426     15.24%     40.18% # Number of insts issued each cycle (Count)
system.cpu.numIssuedDist::4                   3650310     19.81%     59.99% # Number of insts issued each cycle (Count)
system.cpu.numIssuedDist::5                   2066716     11.22%     71.21% # Number of insts issued each cycle (Count)
system.cpu.numIssuedDist::6                   1899238     10.31%     81.52% # Number of insts issued each cycle (Count)
system.cpu.numIssuedDist::7                   1473936      8.00%     89.52% # Number of insts issued each cycle (Count)
system.cpu.numIssuedDist::8                   1931703     10.48%    100.00% # Number of insts issued each cycle (Count)
system.cpu.numIssuedDist::overflows                 0      0.00%    100.00% # Number of insts issued each cycle (Count)
system.cpu.numIssuedDist::min_value                 0                       # Number of insts issued each cycle (Count)
system.cpu.numIssuedDist::max_value                 8                       # Number of insts issued each cycle (Count)
system.cpu.numIssuedDist::total              18425311                       # Number of insts issued each cycle (Count)
system.cpu.statFuBusy::No_OpClass                   0      0.00%      0.00% # attempts to use FU when none available (Count)
system.cpu.statFuBusy::IntAlu                   16150      0.71%      0.71% # attempts to use FU when none available (Count)
system.cpu.statFuBusy::IntMult                      0      0.00%      0.71% # attempts to use FU when none available (Count)
system.cpu.statFuBusy::IntDiv                       0      0.00%      0.71% # attempts to use FU when none available (Count)
system.cpu.statFuBusy::FloatAdd                     0      0.00%      0.71% # attempts to use FU when none available (Count)
system.cpu.statFuBusy::FloatCmp                     0      0.00%      0.71% # attempts to use FU when none available (Count)
system.cpu.statFuBusy::FloatCvt                     0      0.00%      0.71% # attempts to use FU when none available (Count)
system.cpu.statFuBusy::FloatMult                    0      0.00%      0.71% # attempts to use FU when none available (Count)
system.cpu.statFuBusy::FloatMultAcc                 0      0.00%      0.71% # attempts to use FU when none available (Count)
system.cpu.statFuBusy::FloatDiv                     0      0.00%      0.71% # attempts to use FU when none available (Count)
system.cpu.statFuBusy::FloatMisc                    0      0.00%      0.71% # attempts to use FU when none available (Count)
system.cpu.statFuBusy::FloatSqrt                    0      0.00%      0.71% # attempts to use FU when none available (Count)
system.cpu.statFuBusy::SimdAdd                      0      0.00%      0.71% # attempts to use FU when none available (Count)
system.cpu.statFuBusy::SimdAddAcc                   0      0.00%      0.71% # attempts to use FU when none available (Count)
system.cpu.statFuBusy::SimdAlu                     14      0.00%      0.71% # attempts to use FU when none available (Count)
system.cpu.statFuBusy::SimdCmp                      0      0.00%      0.71% # attempts to use FU when none available (Count)
system.cpu.statFuBusy::SimdCvt                     14      0.00%      0.71% # attempts to use FU when none available (Count)
system.cpu.statFuBusy::SimdMisc                     1      0.00%      0.71% # attempts to use FU when none available (Count)
system.cpu.statFuBusy::SimdMult                     0      0.00%      0.71% # attempts to use FU when none available (Count)
system.cpu.statFuBusy::SimdMultAcc                  0      0.00%      0.71% # attempts to use FU when none available (Count)
system.cpu.statFuBusy::SimdShift                    2      0.00%      0.71% # attempts to use FU when none available (Count)
system.cpu.statFuBusy::SimdShiftAcc                 0      0.00%      0.71% # attempts to use FU when none available (Count)
system.cpu.statFuBusy::SimdDiv                      0      0.00%      0.71% # attempts to use FU when none available (Count)
system.cpu.statFuBusy::SimdSqrt                     0      0.00%      0.71% # attempts to use FU when none available (Count)
system.cpu.statFuBusy::SimdFloatAdd                 0      0.00%      0.71% # attempts to use FU when none available (Count)
system.cpu.statFuBusy::SimdFloatAlu                 0      0.00%      0.71% # attempts to use FU when none available (Count)
system.cpu.statFuBusy::SimdFloatCmp                 0      0.00%      0.71% # attempts to use FU when none available (Count)
system.cpu.statFuBusy::SimdFloatCvt                 0      0.00%      0.71% # attempts to use FU when none available (Count)
system.cpu.statFuBusy::SimdFloatDiv                 0      0.00%      0.71% # attempts to use FU when none available (Count)
system.cpu.statFuBusy::SimdFloatMisc                0      0.00%      0.71% # attempts to use FU when none available (Count)
system.cpu.statFuBusy::SimdFloatMult               77      0.00%      0.72% # attempts to use FU when none available (Count)
system.cpu.statFuBusy::SimdFloatMultAcc             0      0.00%      0.72% # attempts to use FU when none available (Count)
system.cpu.statFuBusy::SimdFloatSqrt                0      0.00%      0.72% # attempts to use FU when none available (Count)
system.cpu.statFuBusy::SimdReduceAdd                0      0.00%      0.72% # attempts to use FU when none available (Count)
system.cpu.statFuBusy::SimdReduceAlu                0      0.00%      0.72% # attempts to use FU when none available (Count)
system.cpu.statFuBusy::SimdReduceCmp                0      0.00%      0.72% # attempts to use FU when none available (Count)
system.cpu.statFuBusy::SimdFloatReduceAdd            0      0.00%      0.72% # attempts to use FU when none available (Count)
system.cpu.statFuBusy::SimdFloatReduceCmp            0      0.00%      0.72% # attempts to use FU when none available (Count)
system.cpu.statFuBusy::SimdAes                      0      0.00%      0.72% # attempts to use FU when none available (Count)
system.cpu.statFuBusy::SimdAesMix                   0      0.00%      0.72% # attempts to use FU when none available (Count)
system.cpu.statFuBusy::SimdSha1Hash                 0      0.00%      0.72% # attempts to use FU when none available (Count)
system.cpu.statFuBusy::SimdSha1Hash2                0      0.00%      0.72% # attempts to use FU when none available (Count)
system.cpu.statFuBusy::SimdSha256Hash               0      0.00%      0.72% # attempts to use FU when none available (Count)
system.cpu.statFuBusy::SimdSha256Hash2              0      0.00%      0.72% # attempts to use FU when none available (Count)
system.cpu.statFuBusy::SimdShaSigma2                0      0.00%      0.72% # attempts to use FU when none available (Count)
system.cpu.statFuBusy::SimdShaSigma3                0      0.00%      0.72% # attempts to use FU when none available (Count)
system.cpu.statFuBusy::SimdPredAlu                  0      0.00%      0.72% # attempts to use FU when none available (Count)
system.cpu.statFuBusy::MemRead                1363359     60.12%     60.84% # attempts to use FU when none available (Count)
system.cpu.statFuBusy::MemWrite                   322      0.01%     60.86% # attempts to use FU when none available (Count)
system.cpu.statFuBusy::FloatMemRead            887606     39.14%    100.00% # attempts to use FU when none available (Count)
system.cpu.statFuBusy::FloatMemWrite               37      0.00%    100.00% # attempts to use FU when none available (Count)
system.cpu.statFuBusy::IprAccess                    0      0.00%    100.00% # attempts to use FU when none available (Count)
system.cpu.statFuBusy::InstPrefetch                 0      0.00%    100.00% # attempts to use FU when none available (Count)
system.cpu.statIssuedInstType_0::No_OpClass        88272      0.12%      0.12% # Number of instructions issued per FU type, per thread (Count)
system.cpu.statIssuedInstType_0::IntAlu      27544434     36.79%     36.91% # Number of instructions issued per FU type, per thread (Count)
system.cpu.statIssuedInstType_0::IntMult      2505415      3.35%     40.25% # Number of instructions issued per FU type, per thread (Count)
system.cpu.statIssuedInstType_0::IntDiv          1475      0.00%     40.25% # Number of instructions issued per FU type, per thread (Count)
system.cpu.statIssuedInstType_0::FloatAdd     12101359     16.16%     56.42% # Number of instructions issued per FU type, per thread (Count)
system.cpu.statIssuedInstType_0::FloatCmp            0      0.00%     56.42% # Number of instructions issued per FU type, per thread (Count)
system.cpu.statIssuedInstType_0::FloatCvt           32      0.00%     56.42% # Number of instructions issued per FU type, per thread (Count)
system.cpu.statIssuedInstType_0::FloatMult            0      0.00%     56.42% # Number of instructions issued per FU type, per thread (Count)
system.cpu.statIssuedInstType_0::FloatMultAcc            0      0.00%     56.42% # Number of instructions issued per FU type, per thread (Count)
system.cpu.statIssuedInstType_0::FloatDiv            0      0.00%     56.42% # Number of instructions issued per FU type, per thread (Count)
system.cpu.statIssuedInstType_0::FloatMisc            0      0.00%     56.42% # Number of instructions issued per FU type, per thread (Count)
system.cpu.statIssuedInstType_0::FloatSqrt            0      0.00%     56.42% # Number of instructions issued per FU type, per thread (Count)
system.cpu.statIssuedInstType_0::SimdAdd          431      0.00%     56.42% # Number of instructions issued per FU type, per thread (Count)
system.cpu.statIssuedInstType_0::SimdAddAcc            0      0.00%     56.42% # Number of instructions issued per FU type, per thread (Count)
system.cpu.statIssuedInstType_0::SimdAlu         1201      0.00%     56.42% # Number of instructions issued per FU type, per thread (Count)
system.cpu.statIssuedInstType_0::SimdCmp            0      0.00%     56.42% # Number of instructions issued per FU type, per thread (Count)
system.cpu.statIssuedInstType_0::SimdCvt         1106      0.00%     56.42% # Number of instructions issued per FU type, per thread (Count)
system.cpu.statIssuedInstType_0::SimdMisc        22238      0.03%     56.45% # Number of instructions issued per FU type, per thread (Count)
system.cpu.statIssuedInstType_0::SimdMult            0      0.00%     56.45% # Number of instructions issued per FU type, per thread (Count)
system.cpu.statIssuedInstType_0::SimdMultAcc            0      0.00%     56.45% # Number of instructions issued per FU type, per thread (Count)
system.cpu.statIssuedInstType_0::SimdShift          304      0.00%     56.45% # Number of instructions issued per FU type, per thread (Count)
system.cpu.statIssuedInstType_0::SimdShiftAcc            0      0.00%     56.45% # Number of instructions issued per FU type, per thread (Count)
system.cpu.statIssuedInstType_0::SimdDiv            0      0.00%     56.45% # Number of instructions issued per FU type, per thread (Count)
system.cpu.statIssuedInstType_0::SimdSqrt            0      0.00%     56.45% # Number of instructions issued per FU type, per thread (Count)
system.cpu.statIssuedInstType_0::SimdFloatAdd      2392151      3.19%     59.64% # Number of instructions issued per FU type, per thread (Count)
system.cpu.statIssuedInstType_0::SimdFloatAlu            0      0.00%     59.64% # Number of instructions issued per FU type, per thread (Count)
system.cpu.statIssuedInstType_0::SimdFloatCmp            0      0.00%     59.64% # Number of instructions issued per FU type, per thread (Count)
system.cpu.statIssuedInstType_0::SimdFloatCvt        21170      0.03%     59.67% # Number of instructions issued per FU type, per thread (Count)
system.cpu.statIssuedInstType_0::SimdFloatDiv            0      0.00%     59.67% # Number of instructions issued per FU type, per thread (Count)
system.cpu.statIssuedInstType_0::SimdFloatMisc            0      0.00%     59.67% # Number of instructions issued per FU type, per thread (Count)
system.cpu.statIssuedInstType_0::SimdFloatMult      2371130      3.17%     62.84% # Number of instructions issued per FU type, per thread (Count)
system.cpu.statIssuedInstType_0::SimdFloatMultAcc            0      0.00%     62.84% # Number of instructions issued per FU type, per thread (Count)
system.cpu.statIssuedInstType_0::SimdFloatSqrt            0      0.00%     62.84% # Number of instructions issued per FU type, per thread (Count)
system.cpu.statIssuedInstType_0::SimdReduceAdd            0      0.00%     62.84% # Number of instructions issued per FU type, per thread (Count)
system.cpu.statIssuedInstType_0::SimdReduceAlu            0      0.00%     62.84% # Number of instructions issued per FU type, per thread (Count)
system.cpu.statIssuedInstType_0::SimdReduceCmp            0      0.00%     62.84% # Number of instructions issued per FU type, per thread (Count)
system.cpu.statIssuedInstType_0::SimdFloatReduceAdd            0      0.00%     62.84% # Number of instructions issued per FU type, per thread (Count)
system.cpu.statIssuedInstType_0::SimdFloatReduceCmp            0      0.00%     62.84% # Number of instructions issued per FU type, per thread (Count)
system.cpu.statIssuedInstType_0::SimdAes            0      0.00%     62.84% # Number of instructions issued per FU type, per thread (Count)
system.cpu.statIssuedInstType_0::SimdAesMix            0      0.00%     62.84% # Number of instructions issued per FU type, per thread (Count)
system.cpu.statIssuedInstType_0::SimdSha1Hash            0      0.00%     62.84% # Number of instructions issued per FU type, per thread (Count)
system.cpu.statIssuedInstType_0::SimdSha1Hash2            0      0.00%     62.84% # Number of instructions issued per FU type, per thread (Count)
system.cpu.statIssuedInstType_0::SimdSha256Hash            0      0.00%     62.84% # Number of instructions issued per FU type, per thread (Count)
system.cpu.statIssuedInstType_0::SimdSha256Hash2            0      0.00%     62.84% # Number of instructions issued per FU type, per thread (Count)
system.cpu.statIssuedInstType_0::SimdShaSigma2            0      0.00%     62.84% # Number of instructions issued per FU type, per thread (Count)
system.cpu.statIssuedInstType_0::SimdShaSigma3            0      0.00%     62.84% # Number of instructions issued per FU type, per thread (Count)
system.cpu.statIssuedInstType_0::SimdPredAlu            0      0.00%     62.84% # Number of instructions issued per FU type, per thread (Count)
system.cpu.statIssuedInstType_0::MemRead     11421875     15.25%     78.09% # Number of instructions issued per FU type, per thread (Count)
system.cpu.statIssuedInstType_0::MemWrite       517646      0.69%     78.79% # Number of instructions issued per FU type, per thread (Count)
system.cpu.statIssuedInstType_0::FloatMemRead     12227230     16.33%     95.12% # Number of instructions issued per FU type, per thread (Count)
system.cpu.statIssuedInstType_0::FloatMemWrite      3656489      4.88%    100.00% # Number of instructions issued per FU type, per thread (Count)
system.cpu.statIssuedInstType_0::IprAccess            0      0.00%    100.00% # Number of instructions issued per FU type, per thread (Count)
system.cpu.statIssuedInstType_0::InstPrefetch            0      0.00%    100.00% # Number of instructions issued per FU type, per thread (Count)
system.cpu.statIssuedInstType_0::total       74873958                       # Number of instructions issued per FU type, per thread (Count)
system.cpu.issueRate                         4.045761                       # Inst issue rate ((Count/Cycle))
system.cpu.fuBusy                             2267582                       # FU busy when requested (Count)
system.cpu.fuBusyRate                        0.030285                       # FU busy rate (busy events/executed inst) ((Count/Count))
system.cpu.intInstQueueReads                 99222603                       # Number of integer instruction queue reads (Count)
system.cpu.intInstQueueWrites                40896935                       # Number of integer instruction queue writes (Count)
system.cpu.intInstQueueWakeupAccesses        39673281                       # Number of integer instruction queue wakeup accesses (Count)
system.cpu.fpInstQueueReads                  71221335                       # Number of floating instruction queue reads (Count)
system.cpu.fpInstQueueWrites                 31626835                       # Number of floating instruction queue writes (Count)
system.cpu.fpInstQueueWakeupAccesses         31337218                       # Number of floating instruction queue wakeup accesses (Count)
system.cpu.vecInstQueueReads                        0                       # Number of vector instruction queue reads (Count)
system.cpu.vecInstQueueWrites                       0                       # Number of vector instruction queue writes (Count)
system.cpu.vecInstQueueWakeupAccesses               0                       # Number of vector instruction queue wakeup accesses (Count)
system.cpu.intAluAccesses                    40998830                       # Number of integer alu accesses (Count)
system.cpu.fpAluAccesses                     36054438                       # Number of floating point alu accesses (Count)
system.cpu.vecAluAccesses                           0                       # Number of vector alu accesses (Count)
system.cpu.numInsts                          74852659                       # Number of executed instructions (Count)
system.cpu.numLoadInsts                      23638031                       # Number of load instructions executed (Count)
system.cpu.numSquashedInsts                     21299                       # Number of squashed instructions skipped in execute (Count)
system.cpu.numSwp                                   0                       # Number of swp insts executed (Count)
system.cpu.numNop                                   0                       # Number of nop insts executed (Count)
system.cpu.numRefs                           27811288                       # Number of memory reference insts executed (Count)
system.cpu.numBranches                         602335                       # Number of branches executed (Count)
system.cpu.numStoreInsts                      4173257                       # Number of stores executed (Count)
system.cpu.numRate                           4.044610                       # Inst execution rate ((Count/Cycle))
system.cpu.timesIdled                             956                       # Number of times that the entire CPU went into an idle state and unscheduled itself (Count)
system.cpu.idleCycles                           81455                       # Total number of cycles that the CPU has spent unscheduled due to idling (Cycle)
system.cpu.committedInsts                    41762875                       # Number of Instructions Simulated (Count)
system.cpu.committedOps                      70337822                       # Number of Ops (including micro ops) Simulated (Count)
system.cpu.cpi                               0.443139                       # CPI: Cycles Per Instruction ((Cycle/Count))
system.cpu.totalCpi                          0.443139                       # CPI: Total CPI of All Threads ((Cycle/Count))
system.cpu.ipc                               2.256627                       # IPC: Instructions Per Cycle ((Count/Cycle))
system.cpu.totalIpc                          2.256627                       # IPC: Total IPC of All Threads ((Count/Cycle))
system.cpu.intRegfileReads                   74334012                       # Number of integer regfile reads (Count)
system.cpu.intRegfileWrites                  38070862                       # Number of integer regfile writes (Count)
system.cpu.fpRegfileReads                    22762238                       # Number of floating regfile reads (Count)
system.cpu.fpRegfileWrites                   27680663                       # Number of floating regfile writes (Count)
system.cpu.ccRegfileReads                     2628218                       # number of cc regfile reads (Count)
system.cpu.ccRegfileWrites                   19841105                       # number of cc regfile writes (Count)
system.cpu.miscRegfileReads                  29008249                       # number of misc regfile reads (Count)
system.cpu.miscRegfileWrites                       18                       # number of misc regfile writes (Count)
system.cpu.MemDepUnit__0.insertedLoads       19874861                       # Number of loads inserted to the mem dependence unit. (Count)
system.cpu.MemDepUnit__0.insertedStores       4220902                       # Number of stores inserted to the mem dependence unit. (Count)
system.cpu.MemDepUnit__0.conflictingLoads      7362294                       # Number of conflicting loads. (Count)
system.cpu.MemDepUnit__0.conflictingStores      2208775                       # Number of conflicting stores. (Count)
system.cpu.MemDepUnit__1.insertedLoads              0                       # Number of loads inserted to the mem dependence unit. (Count)
system.cpu.MemDepUnit__1.insertedStores             0                       # Number of stores inserted to the mem dependence unit. (Count)
system.cpu.MemDepUnit__1.conflictingLoads            0                       # Number of conflicting loads. (Count)
system.cpu.MemDepUnit__1.conflictingStores            0                       # Number of conflicting stores. (Count)
system.cpu.MemDepUnit__2.insertedLoads              0                       # Number of loads inserted to the mem dependence unit. (Count)
system.cpu.MemDepUnit__2.insertedStores             0                       # Number of stores inserted to the mem dependence unit. (Count)
system.cpu.MemDepUnit__2.conflictingLoads            0                       # Number of conflicting loads. (Count)
system.cpu.MemDepUnit__2.conflictingStores            0                       # Number of conflicting stores. (Count)
system.cpu.MemDepUnit__3.insertedLoads              0                       # Number of loads inserted to the mem dependence unit. (Count)
system.cpu.MemDepUnit__3.insertedStores             0                       # Number of stores inserted to the mem dependence unit. (Count)
system.cpu.MemDepUnit__3.conflictingLoads            0                       # Number of conflicting loads. (Count)
system.cpu.MemDepUnit__3.conflictingStores            0                       # Number of conflicting stores. (Count)
system.cpu.branchPred.lookups                  632907                       # Number of BP lookups (Count)
system.cpu.branchPred.condPredicted            461861                       # Number of conditional branches predicted (Count)
system.cpu.branchPred.condIncorrect             12447                       # Number of conditional branches incorrect (Count)
system.cpu.branchPred.BTBLookups               435413                       # Number of BTB lookups (Count)
system.cpu.branchPred.BTBUpdates                 3235                       # Number of BTB updates (Count)
system.cpu.branchPred.BTBHits                  433450                       # Number of BTB hits (Count)
system.cpu.branchPred.BTBHitRatio            0.995492                       # BTB Hit Ratio (Ratio)
system.cpu.branchPred.RASUsed                   64902                       # Number of times the RAS was used to get a target. (Count)
system.cpu.branchPred.RASIncorrect                  4                       # Number of incorrect RAS predictions. (Count)
system.cpu.branchPred.indirectLookups           22718                       # Number of indirect predictor lookups. (Count)
system.cpu.branchPred.indirectHits              21638                       # Number of indirect target hits. (Count)
system.cpu.branchPred.indirectMisses             1080                       # Number of indirect misses. (Count)
system.cpu.branchPred.indirectMispredicted          301                       # Number of mispredicted indirect branches. (Count)
system.cpu.commit.commitSquashedInsts         1090932                       # The number of squashed insts skipped by commit (Count)
system.cpu.commit.commitNonSpecStalls              18                       # The number of times commit has been forced to stall to communicate backwards (Count)
system.cpu.commit.branchMispredicts             12124                       # The number of times a branch was mispredicted (Count)
system.cpu.commit.numCommittedDist::samples     18278997                       # Number of insts commited each cycle (Count)
system.cpu.commit.numCommittedDist::mean     3.848013                       # Number of insts commited each cycle (Count)
system.cpu.commit.numCommittedDist::stdev     3.465144                       # Number of insts commited each cycle (Count)
system.cpu.commit.numCommittedDist::underflows            0      0.00%      0.00% # Number of insts commited each cycle (Count)
system.cpu.commit.numCommittedDist::0         4365539     23.88%     23.88% # Number of insts commited each cycle (Count)
system.cpu.commit.numCommittedDist::1         3644280     19.94%     43.82% # Number of insts commited each cycle (Count)
system.cpu.commit.numCommittedDist::2          797498      4.36%     48.18% # Number of insts commited each cycle (Count)
system.cpu.commit.numCommittedDist::3         1268443      6.94%     55.12% # Number of insts commited each cycle (Count)
system.cpu.commit.numCommittedDist::4          957207      5.24%     60.36% # Number of insts commited each cycle (Count)
system.cpu.commit.numCommittedDist::5           59372      0.32%     60.68% # Number of insts commited each cycle (Count)
system.cpu.commit.numCommittedDist::6           15460      0.08%     60.77% # Number of insts commited each cycle (Count)
system.cpu.commit.numCommittedDist::7          294815      1.61%     62.38% # Number of insts commited each cycle (Count)
system.cpu.commit.numCommittedDist::8         6876383     37.62%    100.00% # Number of insts commited each cycle (Count)
system.cpu.commit.numCommittedDist::overflows            0      0.00%    100.00% # Number of insts commited each cycle (Count)
system.cpu.commit.numCommittedDist::min_value            0                       # Number of insts commited each cycle (Count)
system.cpu.commit.numCommittedDist::max_value            8                       # Number of insts commited each cycle (Count)
system.cpu.commit.numCommittedDist::total     18278997                       # Number of insts commited each cycle (Count)
system.cpu.commit.instsCommitted             41762875                       # Number of instructions committed (Count)
system.cpu.commit.opsCommitted               70337822                       # Number of ops (including micro ops) committed (Count)
system.cpu.commit.memRefs                    23769692                       # Number of memory references committed (Count)
system.cpu.commit.loads                      19600390                       # Number of loads committed (Count)
system.cpu.commit.amos                              0                       # Number of atomic instructions committed (Count)
system.cpu.commit.membars                           0                       # Number of memory barriers committed (Count)
system.cpu.commit.branches                     589536                       # Number of branches committed (Count)
system.cpu.commit.vectorInstructions                0                       # Number of committed Vector instructions. (Count)
system.cpu.commit.floating                   31242447                       # Number of committed floating point instructions. (Count)
system.cpu.commit.integer                    51084165                       # Number of committed integer instructions. (Count)
system.cpu.commit.functionCalls                 64313                       # Number of function calls committed. (Count)
system.cpu.commit.committedInstType_0::No_OpClass        85809      0.12%      0.12% # Class of committed instruction (Count)
system.cpu.commit.committedInstType_0::IntAlu     27193678     38.66%     38.78% # Class of committed instruction (Count)
system.cpu.commit.committedInstType_0::IntMult      2469646      3.51%     42.29% # Class of committed instruction (Count)
system.cpu.commit.committedInstType_0::IntDiv         1333      0.00%     42.30% # Class of committed instruction (Count)
system.cpu.commit.committedInstType_0::FloatAdd     12009702     17.07%     59.37% # Class of committed instruction (Count)
system.cpu.commit.committedInstType_0::FloatCmp            0      0.00%     59.37% # Class of committed instruction (Count)
system.cpu.commit.committedInstType_0::FloatCvt           32      0.00%     59.37% # Class of committed instruction (Count)
system.cpu.commit.committedInstType_0::FloatMult            0      0.00%     59.37% # Class of committed instruction (Count)
system.cpu.commit.committedInstType_0::FloatMultAcc            0      0.00%     59.37% # Class of committed instruction (Count)
system.cpu.commit.committedInstType_0::FloatDiv            0      0.00%     59.37% # Class of committed instruction (Count)
system.cpu.commit.committedInstType_0::FloatMisc            0      0.00%     59.37% # Class of committed instruction (Count)
system.cpu.commit.committedInstType_0::FloatSqrt            0      0.00%     59.37% # Class of committed instruction (Count)
system.cpu.commit.committedInstType_0::SimdAdd          322      0.00%     59.37% # Class of committed instruction (Count)
system.cpu.commit.committedInstType_0::SimdAddAcc            0      0.00%     59.37% # Class of committed instruction (Count)
system.cpu.commit.committedInstType_0::SimdAlu          705      0.00%     59.37% # Class of committed instruction (Count)
system.cpu.commit.committedInstType_0::SimdCmp            0      0.00%     59.37% # Class of committed instruction (Count)
system.cpu.commit.committedInstType_0::SimdCvt          750      0.00%     59.37% # Class of committed instruction (Count)
system.cpu.commit.committedInstType_0::SimdMisc        22085      0.03%     59.40% # Class of committed instruction (Count)
system.cpu.commit.committedInstType_0::SimdMult            0      0.00%     59.40% # Class of committed instruction (Count)
system.cpu.commit.committedInstType_0::SimdMultAcc            0      0.00%     59.40% # Class of committed instruction (Count)
system.cpu.commit.committedInstType_0::SimdShift          100      0.00%     59.40% # Class of committed instruction (Count)
system.cpu.commit.committedInstType_0::SimdShiftAcc            0      0.00%     59.40% # Class of committed instruction (Count)
system.cpu.commit.committedInstType_0::SimdDiv            0      0.00%     59.40% # Class of committed instruction (Count)
system.cpu.commit.committedInstType_0::SimdSqrt            0      0.00%     59.40% # Class of committed instruction (Count)
system.cpu.commit.committedInstType_0::SimdFloatAdd      2391984      3.40%     62.81% # Class of committed instruction (Count)
system.cpu.commit.committedInstType_0::SimdFloatAlu            0      0.00%     62.81% # Class of committed instruction (Count)
system.cpu.commit.committedInstType_0::SimdFloatCmp            0      0.00%     62.81% # Class of committed instruction (Count)
system.cpu.commit.committedInstType_0::SimdFloatCvt        21168      0.03%     62.84% # Class of committed instruction (Count)
system.cpu.commit.committedInstType_0::SimdFloatDiv            0      0.00%     62.84% # Class of committed instruction (Count)
system.cpu.commit.committedInstType_0::SimdFloatMisc            0      0.00%     62.84% # Class of committed instruction (Count)
system.cpu.commit.committedInstType_0::SimdFloatMult      2370816      3.37%     66.21% # Class of committed instruction (Count)
system.cpu.commit.committedInstType_0::SimdFloatMultAcc            0      0.00%     66.21% # Class of committed instruction (Count)
system.cpu.commit.committedInstType_0::SimdFloatSqrt            0      0.00%     66.21% # Class of committed instruction (Count)
system.cpu.commit.committedInstType_0::SimdReduceAdd            0      0.00%     66.21% # Class of committed instruction (Count)
system.cpu.commit.committedInstType_0::SimdReduceAlu            0      0.00%     66.21% # Class of committed instruction (Count)
system.cpu.commit.committedInstType_0::SimdReduceCmp            0      0.00%     66.21% # Class of committed instruction (Count)
system.cpu.commit.committedInstType_0::SimdFloatReduceAdd            0      0.00%     66.21% # Class of committed instruction (Count)
system.cpu.commit.committedInstType_0::SimdFloatReduceCmp            0      0.00%     66.21% # Class of committed instruction (Count)
system.cpu.commit.committedInstType_0::SimdAes            0      0.00%     66.21% # Class of committed instruction (Count)
system.cpu.commit.committedInstType_0::SimdAesMix            0      0.00%     66.21% # Class of committed instruction (Count)
system.cpu.commit.committedInstType_0::SimdSha1Hash            0      0.00%     66.21% # Class of committed instruction (Count)
system.cpu.commit.committedInstType_0::SimdSha1Hash2            0      0.00%     66.21% # Class of committed instruction (Count)
system.cpu.commit.committedInstType_0::SimdSha256Hash            0      0.00%     66.21% # Class of committed instruction (Count)
system.cpu.commit.committedInstType_0::SimdSha256Hash2            0      0.00%     66.21% # Class of committed instruction (Count)
system.cpu.commit.committedInstType_0::SimdShaSigma2            0      0.00%     66.21% # Class of committed instruction (Count)
system.cpu.commit.committedInstType_0::SimdShaSigma3            0      0.00%     66.21% # Class of committed instruction (Count)
system.cpu.commit.committedInstType_0::SimdPredAlu            0      0.00%     66.21% # Class of committed instruction (Count)
system.cpu.commit.committedInstType_0::MemRead     11202885     15.93%     82.13% # Class of committed instruction (Count)
system.cpu.commit.committedInstType_0::MemWrite       513159      0.73%     82.86% # Class of committed instruction (Count)
system.cpu.commit.committedInstType_0::FloatMemRead      8397505     11.94%     94.80% # Class of committed instruction (Count)
system.cpu.commit.committedInstType_0::FloatMemWrite      3656143      5.20%    100.00% # Class of committed instruction (Count)
system.cpu.commit.committedInstType_0::IprAccess            0      0.00%    100.00% # Class of committed instruction (Count)
system.cpu.commit.committedInstType_0::InstPrefetch            0      0.00%    100.00% # Class of committed instruction (Count)
system.cpu.commit.committedInstType_0::total     70337822                       # Class of committed instruction (Count)
system.cpu.commit.commitEligibleSamples       6876383                       # number cycles where commit BW limit reached (Cycle)
system.cpu.dcache.demandHits::cpu.data       19887592                       # number of demand (read+write) hits (Count)
system.cpu.dcache.demandHits::total          19887592                       # number of demand (read+write) hits (Count)
system.cpu.dcache.overallHits::cpu.data      19887592                       # number of overall hits (Count)
system.cpu.dcache.overallHits::total         19887592                       # number of overall hits (Count)
system.cpu.dcache.demandMisses::cpu.data        21261                       # number of demand (read+write) misses (Count)
system.cpu.dcache.demandMisses::total           21261                       # number of demand (read+write) misses (Count)
system.cpu.dcache.overallMisses::cpu.data        21261                       # number of overall misses (Count)
system.cpu.dcache.overallMisses::total          21261                       # number of overall misses (Count)
system.cpu.dcache.demandMissLatency::cpu.data    926888497                       # number of demand (read+write) miss ticks (Tick)
system.cpu.dcache.demandMissLatency::total    926888497                       # number of demand (read+write) miss ticks (Tick)
system.cpu.dcache.overallMissLatency::cpu.data    926888497                       # number of overall miss ticks (Tick)
system.cpu.dcache.overallMissLatency::total    926888497                       # number of overall miss ticks (Tick)
system.cpu.dcache.demandAccesses::cpu.data     19908853                       # number of demand (read+write) accesses (Count)
system.cpu.dcache.demandAccesses::total      19908853                       # number of demand (read+write) accesses (Count)
system.cpu.dcache.overallAccesses::cpu.data     19908853                       # number of overall (read+write) accesses (Count)
system.cpu.dcache.overallAccesses::total     19908853                       # number of overall (read+write) accesses (Count)
system.cpu.dcache.demandMissRate::cpu.data     0.001068                       # miss rate for demand accesses (Ratio)
system.cpu.dcache.demandMissRate::total      0.001068                       # miss rate for demand accesses (Ratio)
system.cpu.dcache.overallMissRate::cpu.data     0.001068                       # miss rate for overall accesses (Ratio)
system.cpu.dcache.overallMissRate::total     0.001068                       # miss rate for overall accesses (Ratio)
system.cpu.dcache.demandAvgMissLatency::cpu.data 43595.715018                       # average overall miss latency in ticks ((Tick/Count))
system.cpu.dcache.demandAvgMissLatency::total 43595.715018                       # average overall miss latency in ticks ((Tick/Count))
system.cpu.dcache.overallAvgMissLatency::cpu.data 43595.715018                       # average overall miss latency ((Tick/Count))
system.cpu.dcache.overallAvgMissLatency::total 43595.715018                       # average overall miss latency ((Tick/Count))
system.cpu.dcache.blockedCycles::no_mshrs        17529                       # number of cycles access was blocked (Cycle)
system.cpu.dcache.blockedCycles::no_targets            4                       # number of cycles access was blocked (Cycle)
system.cpu.dcache.blockedCauses::no_mshrs          413                       # number of times access was blocked (Count)
system.cpu.dcache.blockedCauses::no_targets            1                       # number of times access was blocked (Count)
system.cpu.dcache.avgBlocked::no_mshrs      42.443099                       # average number of cycles each access was blocked ((Cycle/Count))
system.cpu.dcache.avgBlocked::no_targets            4                       # average number of cycles each access was blocked ((Cycle/Count))
system.cpu.dcache.writebacks::writebacks         4985                       # number of writebacks (Count)
system.cpu.dcache.writebacks::total              4985                       # number of writebacks (Count)
system.cpu.dcache.demandMshrHits::cpu.data        12979                       # number of demand (read+write) MSHR hits (Count)
system.cpu.dcache.demandMshrHits::total         12979                       # number of demand (read+write) MSHR hits (Count)
system.cpu.dcache.overallMshrHits::cpu.data        12979                       # number of overall MSHR hits (Count)
system.cpu.dcache.overallMshrHits::total        12979                       # number of overall MSHR hits (Count)
system.cpu.dcache.demandMshrMisses::cpu.data         8282                       # number of demand (read+write) MSHR misses (Count)
system.cpu.dcache.demandMshrMisses::total         8282                       # number of demand (read+write) MSHR misses (Count)
system.cpu.dcache.overallMshrMisses::cpu.data         8282                       # number of overall MSHR misses (Count)
system.cpu.dcache.overallMshrMisses::total         8282                       # number of overall MSHR misses (Count)
system.cpu.dcache.demandMshrMissLatency::cpu.data    340777497                       # number of demand (read+write) MSHR miss ticks (Tick)
system.cpu.dcache.demandMshrMissLatency::total    340777497                       # number of demand (read+write) MSHR miss ticks (Tick)
system.cpu.dcache.overallMshrMissLatency::cpu.data    340777497                       # number of overall MSHR miss ticks (Tick)
system.cpu.dcache.overallMshrMissLatency::total    340777497                       # number of overall MSHR miss ticks (Tick)
system.cpu.dcache.demandMshrMissRate::cpu.data     0.000416                       # mshr miss ratio for demand accesses (Ratio)
system.cpu.dcache.demandMshrMissRate::total     0.000416                       # mshr miss ratio for demand accesses (Ratio)
system.cpu.dcache.overallMshrMissRate::cpu.data     0.000416                       # mshr miss ratio for overall accesses (Ratio)
system.cpu.dcache.overallMshrMissRate::total     0.000416                       # mshr miss ratio for overall accesses (Ratio)
system.cpu.dcache.demandAvgMshrMissLatency::cpu.data 41146.763704                       # average overall mshr miss latency ((Tick/Count))
system.cpu.dcache.demandAvgMshrMissLatency::total 41146.763704                       # average overall mshr miss latency ((Tick/Count))
system.cpu.dcache.overallAvgMshrMissLatency::cpu.data 41146.763704                       # average overall mshr miss latency ((Tick/Count))
system.cpu.dcache.overallAvgMshrMissLatency::total 41146.763704                       # average overall mshr miss latency ((Tick/Count))
system.cpu.dcache.replacements                   7257                       # number of replacements (Count)
system.cpu.dcache.ReadReq.hits::cpu.data     15720258                       # number of ReadReq hits (Count)
system.cpu.dcache.ReadReq.hits::total        15720258                       # number of ReadReq hits (Count)
system.cpu.dcache.ReadReq.misses::cpu.data        19293                       # number of ReadReq misses (Count)
system.cpu.dcache.ReadReq.misses::total         19293                       # number of ReadReq misses (Count)
system.cpu.dcache.ReadReq.missLatency::cpu.data    786733500                       # number of ReadReq miss ticks (Tick)
system.cpu.dcache.ReadReq.missLatency::total    786733500                       # number of ReadReq miss ticks (Tick)
system.cpu.dcache.ReadReq.accesses::cpu.data     15739551                       # number of ReadReq accesses(hits+misses) (Count)
system.cpu.dcache.ReadReq.accesses::total     15739551                       # number of ReadReq accesses(hits+misses) (Count)
system.cpu.dcache.ReadReq.missRate::cpu.data     0.001226                       # miss rate for ReadReq accesses (Ratio)
system.cpu.dcache.ReadReq.missRate::total     0.001226                       # miss rate for ReadReq accesses (Ratio)
system.cpu.dcache.ReadReq.avgMissLatency::cpu.data 40778.183797                       # average ReadReq miss latency ((Tick/Count))
system.cpu.dcache.ReadReq.avgMissLatency::total 40778.183797                       # average ReadReq miss latency ((Tick/Count))
system.cpu.dcache.ReadReq.mshrHits::cpu.data        12969                       # number of ReadReq MSHR hits (Count)
system.cpu.dcache.ReadReq.mshrHits::total        12969                       # number of ReadReq MSHR hits (Count)
system.cpu.dcache.ReadReq.mshrMisses::cpu.data         6324                       # number of ReadReq MSHR misses (Count)
system.cpu.dcache.ReadReq.mshrMisses::total         6324                       # number of ReadReq MSHR misses (Count)
system.cpu.dcache.ReadReq.mshrMissLatency::cpu.data    202887500                       # number of ReadReq MSHR miss ticks (Tick)
system.cpu.dcache.ReadReq.mshrMissLatency::total    202887500                       # number of ReadReq MSHR miss ticks (Tick)
system.cpu.dcache.ReadReq.mshrMissRate::cpu.data     0.000402                       # mshr miss rate for ReadReq accesses (Ratio)
system.cpu.dcache.ReadReq.mshrMissRate::total     0.000402                       # mshr miss rate for ReadReq accesses (Ratio)
system.cpu.dcache.ReadReq.avgMshrMissLatency::cpu.data 32082.147375                       # average ReadReq mshr miss latency ((Tick/Count))
system.cpu.dcache.ReadReq.avgMshrMissLatency::total 32082.147375                       # average ReadReq mshr miss latency ((Tick/Count))
system.cpu.dcache.WriteReq.hits::cpu.data      4167334                       # number of WriteReq hits (Count)
system.cpu.dcache.WriteReq.hits::total        4167334                       # number of WriteReq hits (Count)
system.cpu.dcache.WriteReq.misses::cpu.data         1968                       # number of WriteReq misses (Count)
system.cpu.dcache.WriteReq.misses::total         1968                       # number of WriteReq misses (Count)
system.cpu.dcache.WriteReq.missLatency::cpu.data    140154997                       # number of WriteReq miss ticks (Tick)
system.cpu.dcache.WriteReq.missLatency::total    140154997                       # number of WriteReq miss ticks (Tick)
system.cpu.dcache.WriteReq.accesses::cpu.data      4169302                       # number of WriteReq accesses(hits+misses) (Count)
system.cpu.dcache.WriteReq.accesses::total      4169302                       # number of WriteReq accesses(hits+misses) (Count)
system.cpu.dcache.WriteReq.missRate::cpu.data     0.000472                       # miss rate for WriteReq accesses (Ratio)
system.cpu.dcache.WriteReq.missRate::total     0.000472                       # miss rate for WriteReq accesses (Ratio)
system.cpu.dcache.WriteReq.avgMissLatency::cpu.data 71216.970020                       # average WriteReq miss latency ((Tick/Count))
system.cpu.dcache.WriteReq.avgMissLatency::total 71216.970020                       # average WriteReq miss latency ((Tick/Count))
system.cpu.dcache.WriteReq.mshrHits::cpu.data           10                       # number of WriteReq MSHR hits (Count)
system.cpu.dcache.WriteReq.mshrHits::total           10                       # number of WriteReq MSHR hits (Count)
system.cpu.dcache.WriteReq.mshrMisses::cpu.data         1958                       # number of WriteReq MSHR misses (Count)
system.cpu.dcache.WriteReq.mshrMisses::total         1958                       # number of WriteReq MSHR misses (Count)
system.cpu.dcache.WriteReq.mshrMissLatency::cpu.data    137889997                       # number of WriteReq MSHR miss ticks (Tick)
system.cpu.dcache.WriteReq.mshrMissLatency::total    137889997                       # number of WriteReq MSHR miss ticks (Tick)
system.cpu.dcache.WriteReq.mshrMissRate::cpu.data     0.000470                       # mshr miss rate for WriteReq accesses (Ratio)
system.cpu.dcache.WriteReq.mshrMissRate::total     0.000470                       # mshr miss rate for WriteReq accesses (Ratio)
system.cpu.dcache.WriteReq.avgMshrMissLatency::cpu.data 70423.900409                       # average WriteReq mshr miss latency ((Tick/Count))
system.cpu.dcache.WriteReq.avgMshrMissLatency::total 70423.900409                       # average WriteReq mshr miss latency ((Tick/Count))
system.cpu.dcache.power_state.pwrStateResidencyTicks::UNDEFINED   9253382500                       # Cumulative time (in ticks) in various power states (Tick)
system.cpu.dcache.tags.tagsInUse          1018.756819                       # Average ticks per tags in use ((Tick/Count))
system.cpu.dcache.tags.totalRefs             19895874                       # Total number of references to valid blocks. (Count)
system.cpu.dcache.tags.sampledRefs               8281                       # Sample count of references to valid blocks. (Count)
system.cpu.dcache.tags.avgRefs            2402.593165                       # Average number of references to valid blocks. ((Count/Count))
system.cpu.dcache.tags.warmupTick              168000                       # The tick when the warmup percentage was hit. (Tick)
system.cpu.dcache.tags.occupancies::cpu.data  1018.756819                       # Average occupied blocks per tick, per requestor ((Count/Tick))
system.cpu.dcache.tags.avgOccs::cpu.data     0.994880                       # Average percentage of cache occupancy ((Ratio/Tick))
system.cpu.dcache.tags.avgOccs::total        0.994880                       # Average percentage of cache occupancy ((Ratio/Tick))
system.cpu.dcache.tags.occupanciesTaskId::1024         1024                       # Occupied blocks per task id (Count)
system.cpu.dcache.tags.ageTaskId_1024::0           99                       # Occupied blocks per task id, per block age (Count)
system.cpu.dcache.tags.ageTaskId_1024::1           26                       # Occupied blocks per task id, per block age (Count)
system.cpu.dcache.tags.ageTaskId_1024::2          338                       # Occupied blocks per task id, per block age (Count)
system.cpu.dcache.tags.ageTaskId_1024::3          561                       # Occupied blocks per task id, per block age (Count)
system.cpu.dcache.tags.ratioOccsTaskId::1024            1                       # Ratio of occupied blocks and all blocks, per task id (Ratio)
system.cpu.dcache.tags.tagAccesses           79643693                       # Number of tag accesses (Count)
system.cpu.dcache.tags.dataAccesses          79643693                       # Number of data accesses (Count)
system.cpu.dcache.tags.power_state.pwrStateResidencyTicks::UNDEFINED   9253382500                       # Cumulative time (in ticks) in various power states (Tick)
system.cpu.decode.idleCycles                  2000084                       # Number of cycles decode is idle (Cycle)
system.cpu.decode.blockedCycles               7095093                       # Number of cycles decode is blocked (Cycle)
system.cpu.decode.runCycles                   6024958                       # Number of cycles decode is running (Cycle)
system.cpu.decode.unblockCycles               3291816                       # Number of cycles decode is unblocking (Cycle)
system.cpu.decode.squashCycles                  13360                       # Number of cycles decode is squashing (Cycle)
system.cpu.decode.branchResolved               431267                       # Number of times decode resolved a branch (Count)
system.cpu.decode.branchMispred                   559                       # Number of times decode detected a branch misprediction (Count)
system.cpu.decode.decodedInsts               71612582                       # Number of instructions handled by decode (Count)
system.cpu.decode.squashedInsts                  2817                       # Number of squashed instructions handled by decode (Count)
system.cpu.fetch.icacheStallCycles            3158656                       # Number of cycles fetch is stalled on an Icache miss (Cycle)
system.cpu.fetch.insts                       42711423                       # Number of instructions fetch has processed (Count)
system.cpu.fetch.branches                      632907                       # Number of branches that fetch encountered (Count)
system.cpu.fetch.predictedBranches             519990                       # Number of branches that fetch has predicted taken (Count)
system.cpu.fetch.cycles                      15250676                       # Number of cycles fetch has run and was not squashing or blocked (Cycle)
system.cpu.fetch.squashCycles                   27818                       # Number of cycles fetch has spent squashing (Cycle)
system.cpu.fetch.miscStallCycles                  248                       # Number of cycles fetch has spent waiting on interrupts, or bad addresses, or out of MSHRs (Cycle)
system.cpu.fetch.pendingTrapStallCycles          1822                       # Number of stall cycles due to pending traps (Cycle)
system.cpu.fetch.cacheLines                   3106364                       # Number of cache lines fetched (Count)
system.cpu.fetch.icacheSquashes                  8324                       # Number of outstanding Icache misses that were squashed (Count)
system.cpu.fetch.nisnDist::samples           18425311                       # Number of instructions fetched each cycle (Total) (Count)
system.cpu.fetch.nisnDist::mean              3.900738                       # Number of instructions fetched each cycle (Total) (Count)
system.cpu.fetch.nisnDist::stdev             3.601741                       # Number of instructions fetched each cycle (Total) (Count)
system.cpu.fetch.nisnDist::underflows               0      0.00%      0.00% # Number of instructions fetched each cycle (Total) (Count)
system.cpu.fetch.nisnDist::0                  7271734     39.47%     39.47% # Number of instructions fetched each cycle (Total) (Count)
system.cpu.fetch.nisnDist::1                   350326      1.90%     41.37% # Number of instructions fetched each cycle (Total) (Count)
system.cpu.fetch.nisnDist::2                   652301      3.54%     44.91% # Number of instructions fetched each cycle (Total) (Count)
system.cpu.fetch.nisnDist::3                   749910      4.07%     48.98% # Number of instructions fetched each cycle (Total) (Count)
system.cpu.fetch.nisnDist::4                   938870      5.10%     54.07% # Number of instructions fetched each cycle (Total) (Count)
system.cpu.fetch.nisnDist::5                   688251      3.74%     57.81% # Number of instructions fetched each cycle (Total) (Count)
system.cpu.fetch.nisnDist::6                   608451      3.30%     61.11% # Number of instructions fetched each cycle (Total) (Count)
system.cpu.fetch.nisnDist::7                   203531      1.10%     62.22% # Number of instructions fetched each cycle (Total) (Count)
system.cpu.fetch.nisnDist::8                  6961937     37.78%    100.00% # Number of instructions fetched each cycle (Total) (Count)
system.cpu.fetch.nisnDist::overflows                0      0.00%    100.00% # Number of instructions fetched each cycle (Total) (Count)
system.cpu.fetch.nisnDist::min_value                0                       # Number of instructions fetched each cycle (Total) (Count)
system.cpu.fetch.nisnDist::max_value                8                       # Number of instructions fetched each cycle (Total) (Count)
system.cpu.fetch.nisnDist::total             18425311                       # Number of instructions fetched each cycle (Total) (Count)
system.cpu.fetch.branchRate                  0.034199                       # Number of branch fetches per cycle (Ratio)
system.cpu.fetch.rate                        2.307882                       # Number of inst fetches per cycle ((Count/Cycle))
system.cpu.icache.demandHits::cpu.inst        3104265                       # number of demand (read+write) hits (Count)
system.cpu.icache.demandHits::total           3104265                       # number of demand (read+write) hits (Count)
system.cpu.icache.overallHits::cpu.inst       3104265                       # number of overall hits (Count)
system.cpu.icache.overallHits::total          3104265                       # number of overall hits (Count)
system.cpu.icache.demandMisses::cpu.inst         2099                       # number of demand (read+write) misses (Count)
system.cpu.icache.demandMisses::total            2099                       # number of demand (read+write) misses (Count)
system.cpu.icache.overallMisses::cpu.inst         2099                       # number of overall misses (Count)
system.cpu.icache.overallMisses::total           2099                       # number of overall misses (Count)
system.cpu.icache.demandMissLatency::cpu.inst    117720000                       # number of demand (read+write) miss ticks (Tick)
system.cpu.icache.demandMissLatency::total    117720000                       # number of demand (read+write) miss ticks (Tick)
system.cpu.icache.overallMissLatency::cpu.inst    117720000                       # number of overall miss ticks (Tick)
system.cpu.icache.overallMissLatency::total    117720000                       # number of overall miss ticks (Tick)
system.cpu.icache.demandAccesses::cpu.inst      3106364                       # number of demand (read+write) accesses (Count)
system.cpu.icache.demandAccesses::total       3106364                       # number of demand (read+write) accesses (Count)
system.cpu.icache.overallAccesses::cpu.inst      3106364                       # number of overall (read+write) accesses (Count)
system.cpu.icache.overallAccesses::total      3106364                       # number of overall (read+write) accesses (Count)
system.cpu.icache.demandMissRate::cpu.inst     0.000676                       # miss rate for demand accesses (Ratio)
system.cpu.icache.demandMissRate::total      0.000676                       # miss rate for demand accesses (Ratio)
system.cpu.icache.overallMissRate::cpu.inst     0.000676                       # miss rate for overall accesses (Ratio)
system.cpu.icache.overallMissRate::total     0.000676                       # miss rate for overall accesses (Ratio)
system.cpu.icache.demandAvgMissLatency::cpu.inst 56083.849452                       # average overall miss latency in ticks ((Tick/Count))
system.cpu.icache.demandAvgMissLatency::total 56083.849452                       # average overall miss latency in ticks ((Tick/Count))
system.cpu.icache.overallAvgMissLatency::cpu.inst 56083.849452                       # average overall miss latency ((Tick/Count))
system.cpu.icache.overallAvgMissLatency::total 56083.849452                       # average overall miss latency ((Tick/Count))
system.cpu.icache.blockedCycles::no_mshrs          229                       # number of cycles access was blocked (Cycle)
system.cpu.icache.blockedCycles::no_targets            0                       # number of cycles access was blocked (Cycle)
system.cpu.icache.blockedCauses::no_mshrs            4                       # number of times access was blocked (Count)
system.cpu.icache.blockedCauses::no_targets            0                       # number of times access was blocked (Count)
system.cpu.icache.avgBlocked::no_mshrs      57.250000                       # average number of cycles each access was blocked ((Cycle/Count))
system.cpu.icache.avgBlocked::no_targets          nan                       # average number of cycles each access was blocked ((Cycle/Count))
system.cpu.icache.writebacks::writebacks            2                       # number of writebacks (Count)
system.cpu.icache.writebacks::total                 2                       # number of writebacks (Count)
system.cpu.icache.demandMshrHits::cpu.inst          427                       # number of demand (read+write) MSHR hits (Count)
system.cpu.icache.demandMshrHits::total           427                       # number of demand (read+write) MSHR hits (Count)
system.cpu.icache.overallMshrHits::cpu.inst          427                       # number of overall MSHR hits (Count)
system.cpu.icache.overallMshrHits::total          427                       # number of overall MSHR hits (Count)
system.cpu.icache.demandMshrMisses::cpu.inst         1672                       # number of demand (read+write) MSHR misses (Count)
system.cpu.icache.demandMshrMisses::total         1672                       # number of demand (read+write) MSHR misses (Count)
system.cpu.icache.overallMshrMisses::cpu.inst         1672                       # number of overall MSHR misses (Count)
system.cpu.icache.overallMshrMisses::total         1672                       # number of overall MSHR misses (Count)
system.cpu.icache.demandMshrMissLatency::cpu.inst     93699500                       # number of demand (read+write) MSHR miss ticks (Tick)
system.cpu.icache.demandMshrMissLatency::total     93699500                       # number of demand (read+write) MSHR miss ticks (Tick)
system.cpu.icache.overallMshrMissLatency::cpu.inst     93699500                       # number of overall MSHR miss ticks (Tick)
system.cpu.icache.overallMshrMissLatency::total     93699500                       # number of overall MSHR miss ticks (Tick)
system.cpu.icache.demandMshrMissRate::cpu.inst     0.000538                       # mshr miss ratio for demand accesses (Ratio)
system.cpu.icache.demandMshrMissRate::total     0.000538                       # mshr miss ratio for demand accesses (Ratio)
system.cpu.icache.overallMshrMissRate::cpu.inst     0.000538                       # mshr miss ratio for overall accesses (Ratio)
system.cpu.icache.overallMshrMissRate::total     0.000538                       # mshr miss ratio for overall accesses (Ratio)
system.cpu.icache.demandAvgMshrMissLatency::cpu.inst 56040.370813                       # average overall mshr miss latency ((Tick/Count))
system.cpu.icache.demandAvgMshrMissLatency::total 56040.370813                       # average overall mshr miss latency ((Tick/Count))
system.cpu.icache.overallAvgMshrMissLatency::cpu.inst 56040.370813                       # average overall mshr miss latency ((Tick/Count))
system.cpu.icache.overallAvgMshrMissLatency::total 56040.370813                       # average overall mshr miss latency ((Tick/Count))
system.cpu.icache.replacements                   1542                       # number of replacements (Count)
system.cpu.icache.ReadReq.hits::cpu.inst      3104265                       # number of ReadReq hits (Count)
system.cpu.icache.ReadReq.hits::total         3104265                       # number of ReadReq hits (Count)
system.cpu.icache.ReadReq.misses::cpu.inst         2099                       # number of ReadReq misses (Count)
system.cpu.icache.ReadReq.misses::total          2099                       # number of ReadReq misses (Count)
system.cpu.icache.ReadReq.missLatency::cpu.inst    117720000                       # number of ReadReq miss ticks (Tick)
system.cpu.icache.ReadReq.missLatency::total    117720000                       # number of ReadReq miss ticks (Tick)
system.cpu.icache.ReadReq.accesses::cpu.inst      3106364                       # number of ReadReq accesses(hits+misses) (Count)
system.cpu.icache.ReadReq.accesses::total      3106364                       # number of ReadReq accesses(hits+misses) (Count)
system.cpu.icache.ReadReq.missRate::cpu.inst     0.000676                       # miss rate for ReadReq accesses (Ratio)
system.cpu.icache.ReadReq.missRate::total     0.000676                       # miss rate for ReadReq accesses (Ratio)
system.cpu.icache.ReadReq.avgMissLatency::cpu.inst 56083.849452                       # average ReadReq miss latency ((Tick/Count))
system.cpu.icache.ReadReq.avgMissLatency::total 56083.849452                       # average ReadReq miss latency ((Tick/Count))
system.cpu.icache.ReadReq.mshrHits::cpu.inst          427                       # number of ReadReq MSHR hits (Count)
system.cpu.icache.ReadReq.mshrHits::total          427                       # number of ReadReq MSHR hits (Count)
system.cpu.icache.ReadReq.mshrMisses::cpu.inst         1672                       # number of ReadReq MSHR misses (Count)
system.cpu.icache.ReadReq.mshrMisses::total         1672                       # number of ReadReq MSHR misses (Count)
system.cpu.icache.ReadReq.mshrMissLatency::cpu.inst     93699500                       # number of ReadReq MSHR miss ticks (Tick)
system.cpu.icache.ReadReq.mshrMissLatency::total     93699500                       # number of ReadReq MSHR miss ticks (Tick)
system.cpu.icache.ReadReq.mshrMissRate::cpu.inst     0.000538                       # mshr miss rate for ReadReq accesses (Ratio)
system.cpu.icache.ReadReq.mshrMissRate::total     0.000538                       # mshr miss rate for ReadReq accesses (Ratio)
system.cpu.icache.ReadReq.avgMshrMissLatency::cpu.inst 56040.370813                       # average ReadReq mshr miss latency ((Tick/Count))
system.cpu.icache.ReadReq.avgMshrMissLatency::total 56040.370813                       # average ReadReq mshr miss latency ((Tick/Count))
system.cpu.icache.power_state.pwrStateResidencyTicks::UNDEFINED   9253382500                       # Cumulative time (in ticks) in various power states (Tick)
system.cpu.icache.tags.tagsInUse           127.916601                       # Average ticks per tags in use ((Tick/Count))
system.cpu.icache.tags.totalRefs              3105936                       # Total number of references to valid blocks. (Count)
system.cpu.icache.tags.sampledRefs               1671                       # Sample count of references to valid blocks. (Count)
system.cpu.icache.tags.avgRefs            1858.728905                       # Average number of references to valid blocks. ((Count/Count))
system.cpu.icache.tags.warmupTick               82000                       # The tick when the warmup percentage was hit. (Tick)
system.cpu.icache.tags.occupancies::cpu.inst   127.916601                       # Average occupied blocks per tick, per requestor ((Count/Tick))
system.cpu.icache.tags.avgOccs::cpu.inst     0.999348                       # Average percentage of cache occupancy ((Ratio/Tick))
system.cpu.icache.tags.avgOccs::total        0.999348                       # Average percentage of cache occupancy ((Ratio/Tick))
system.cpu.icache.tags.occupanciesTaskId::1024          128                       # Occupied blocks per task id (Count)
system.cpu.icache.tags.ageTaskId_1024::0          101                       # Occupied blocks per task id, per block age (Count)
system.cpu.icache.tags.ageTaskId_1024::3           27                       # Occupied blocks per task id, per block age (Count)
system.cpu.icache.tags.ratioOccsTaskId::1024            1                       # Ratio of occupied blocks and all blocks, per task id (Ratio)
system.cpu.icache.tags.tagAccesses           12427127                       # Number of tag accesses (Count)
system.cpu.icache.tags.dataAccesses          12427127                       # Number of data accesses (Count)
system.cpu.icache.tags.power_state.pwrStateResidencyTicks::UNDEFINED   9253382500                       # Cumulative time (in ticks) in various power states (Tick)
system.cpu.iew.idleCycles                           0                       # Number of cycles IEW is idle (Cycle)
system.cpu.iew.squashCycles                     13360                       # Number of cycles IEW is squashing (Cycle)
system.cpu.iew.blockCycles                     231091                       # Number of cycles IEW is blocking (Cycle)
system.cpu.iew.unblockCycles                     9096                       # Number of cycles IEW is unblocking (Cycle)
system.cpu.iew.dispatchedInsts               71430188                       # Number of instructions dispatched to IQ (Count)
system.cpu.iew.dispSquashedInsts                  449                       # Number of squashed instructions skipped by dispatch (Count)
system.cpu.iew.dispLoadInsts                 19874861                       # Number of dispatched load instructions (Count)
system.cpu.iew.dispStoreInsts                 4220902                       # Number of dispatched store instructions (Count)
system.cpu.iew.dispNonSpecInsts                    22                       # Number of dispatched non-speculative instructions (Count)
system.cpu.iew.iqFullEvents                      6000                       # Number of times the IQ has become full, causing a stall (Count)
system.cpu.iew.lsqFullEvents                     2235                       # Number of times the LSQ has become full, causing a stall (Count)
system.cpu.iew.memOrderViolationEvents           1236                       # Number of memory order violations (Count)
system.cpu.iew.predictedTakenIncorrect           9345                       # Number of branches that were predicted taken incorrectly (Count)
system.cpu.iew.predictedNotTakenIncorrect         3629                       # Number of branches that were predicted not taken incorrectly (Count)
system.cpu.iew.branchMispredicts                12974                       # Number of branch mispredicts detected at execute (Count)
system.cpu.iew.instsToCommit                 71019828                       # Cumulative count of insts sent to commit (Count)
system.cpu.iew.writebackCount                71010499                       # Cumulative count of insts written-back (Count)
system.cpu.iew.producerInst                  52022695                       # Number of instructions producing a value (Count)
system.cpu.iew.consumerInst                  70948522                       # Number of instructions consuming a value (Count)
system.cpu.iew.wbRate                        3.837002                       # Insts written-back per cycle ((Count/Cycle))
system.cpu.iew.wbFanout                      0.733246                       # Average fanout of values written-back ((Count/Count))
system.cpu.interrupts.clk_domain.clock           8000                       # Clock period in ticks (Tick)
system.cpu.l2cache.demandHits::cpu.inst           460                       # number of demand (read+write) hits (Count)
system.cpu.l2cache.demandHits::cpu.data          4358                       # number of demand (read+write) hits (Count)
system.cpu.l2cache.demandHits::total             4818                       # number of demand (read+write) hits (Count)
system.cpu.l2cache.overallHits::cpu.inst          460                       # number of overall hits (Count)
system.cpu.l2cache.overallHits::cpu.data         4358                       # number of overall hits (Count)
system.cpu.l2cache.overallHits::total            4818                       # number of overall hits (Count)
system.cpu.l2cache.demandMisses::cpu.inst         1211                       # number of demand (read+write) misses (Count)
system.cpu.l2cache.demandMisses::cpu.data         3923                       # number of demand (read+write) misses (Count)
system.cpu.l2cache.demandMisses::total           5134                       # number of demand (read+write) misses (Count)
system.cpu.l2cache.overallMisses::cpu.inst         1211                       # number of overall misses (Count)
system.cpu.l2cache.overallMisses::cpu.data         3923                       # number of overall misses (Count)
system.cpu.l2cache.overallMisses::total          5134                       # number of overall misses (Count)
system.cpu.l2cache.demandMissLatency::cpu.inst     86340500                       # number of demand (read+write) miss ticks (Tick)
system.cpu.l2cache.demandMissLatency::cpu.data    282389000                       # number of demand (read+write) miss ticks (Tick)
system.cpu.l2cache.demandMissLatency::total    368729500                       # number of demand (read+write) miss ticks (Tick)
system.cpu.l2cache.overallMissLatency::cpu.inst     86340500                       # number of overall miss ticks (Tick)
system.cpu.l2cache.overallMissLatency::cpu.data    282389000                       # number of overall miss ticks (Tick)
system.cpu.l2cache.overallMissLatency::total    368729500                       # number of overall miss ticks (Tick)
system.cpu.l2cache.demandAccesses::cpu.inst         1671                       # number of demand (read+write) accesses (Count)
system.cpu.l2cache.demandAccesses::cpu.data         8281                       # number of demand (read+write) accesses (Count)
system.cpu.l2cache.demandAccesses::total         9952                       # number of demand (read+write) accesses (Count)
system.cpu.l2cache.overallAccesses::cpu.inst         1671                       # number of overall (read+write) accesses (Count)
system.cpu.l2cache.overallAccesses::cpu.data         8281                       # number of overall (read+write) accesses (Count)
system.cpu.l2cache.overallAccesses::total         9952                       # number of overall (read+write) accesses (Count)
system.cpu.l2cache.demandMissRate::cpu.inst     0.724716                       # miss rate for demand accesses (Ratio)
system.cpu.l2cache.demandMissRate::cpu.data     0.473735                       # miss rate for demand accesses (Ratio)
system.cpu.l2cache.demandMissRate::total     0.515876                       # miss rate for demand accesses (Ratio)
system.cpu.l2cache.overallMissRate::cpu.inst     0.724716                       # miss rate for overall accesses (Ratio)
system.cpu.l2cache.overallMissRate::cpu.data     0.473735                       # miss rate for overall accesses (Ratio)
system.cpu.l2cache.overallMissRate::total     0.515876                       # miss rate for overall accesses (Ratio)
system.cpu.l2cache.demandAvgMissLatency::cpu.inst 71296.862097                       # average overall miss latency in ticks ((Tick/Count))
system.cpu.l2cache.demandAvgMissLatency::cpu.data 71982.921234                       # average overall miss latency in ticks ((Tick/Count))
system.cpu.l2cache.demandAvgMissLatency::total 71821.094663                       # average overall miss latency in ticks ((Tick/Count))
system.cpu.l2cache.overallAvgMissLatency::cpu.inst 71296.862097                       # average overall miss latency ((Tick/Count))
system.cpu.l2cache.overallAvgMissLatency::cpu.data 71982.921234                       # average overall miss latency ((Tick/Count))
system.cpu.l2cache.overallAvgMissLatency::total 71821.094663                       # average overall miss latency ((Tick/Count))
system.cpu.l2cache.blockedCycles::no_mshrs            0                       # number of cycles access was blocked (Cycle)
system.cpu.l2cache.blockedCycles::no_targets            0                       # number of cycles access was blocked (Cycle)
system.cpu.l2cache.blockedCauses::no_mshrs            0                       # number of times access was blocked (Count)
system.cpu.l2cache.blockedCauses::no_targets            0                       # number of times access was blocked (Count)
system.cpu.l2cache.avgBlocked::no_mshrs           nan                       # average number of cycles each access was blocked ((Cycle/Count))
system.cpu.l2cache.avgBlocked::no_targets          nan                       # average number of cycles each access was blocked ((Cycle/Count))
system.cpu.l2cache.demandMshrMisses::cpu.inst         1211                       # number of demand (read+write) MSHR misses (Count)
system.cpu.l2cache.demandMshrMisses::cpu.data         3923                       # number of demand (read+write) MSHR misses (Count)
system.cpu.l2cache.demandMshrMisses::total         5134                       # number of demand (read+write) MSHR misses (Count)
system.cpu.l2cache.overallMshrMisses::cpu.inst         1211                       # number of overall MSHR misses (Count)
system.cpu.l2cache.overallMshrMisses::cpu.data         3923                       # number of overall MSHR misses (Count)
system.cpu.l2cache.overallMshrMisses::total         5134                       # number of overall MSHR misses (Count)
system.cpu.l2cache.demandMshrMissLatency::cpu.inst     74240500                       # number of demand (read+write) MSHR miss ticks (Tick)
system.cpu.l2cache.demandMshrMissLatency::cpu.data    243159000                       # number of demand (read+write) MSHR miss ticks (Tick)
system.cpu.l2cache.demandMshrMissLatency::total    317399500                       # number of demand (read+write) MSHR miss ticks (Tick)
system.cpu.l2cache.overallMshrMissLatency::cpu.inst     74240500                       # number of overall MSHR miss ticks (Tick)
system.cpu.l2cache.overallMshrMissLatency::cpu.data    243159000                       # number of overall MSHR miss ticks (Tick)
system.cpu.l2cache.overallMshrMissLatency::total    317399500                       # number of overall MSHR miss ticks (Tick)
system.cpu.l2cache.demandMshrMissRate::cpu.inst     0.724716                       # mshr miss ratio for demand accesses (Ratio)
system.cpu.l2cache.demandMshrMissRate::cpu.data     0.473735                       # mshr miss ratio for demand accesses (Ratio)
system.cpu.l2cache.demandMshrMissRate::total     0.515876                       # mshr miss ratio for demand accesses (Ratio)
[...]
system.mem_ctrl.requestorReadAvgLat::cpu.data     26259.18                       # Per-requestor read average memory access latency ((Tick/Count))
system.mem_ctrl.dram.bytesRead::cpu.inst        77440                       # Number of bytes read from this memory (Byte)
system.mem_ctrl.dram.bytesRead::cpu.data       251072                       # Number of bytes read from this memory (Byte)
system.mem_ctrl.dram.bytesRead::total          328512                       # Number of bytes read from this memory (Byte)
system.mem_ctrl.dram.bytesInstRead::cpu.inst        77440                       # Number of instructions bytes read from this memory (Byte)
system.mem_ctrl.dram.bytesInstRead::total        77440                       # Number of instructions bytes read from this memory (Byte)
system.mem_ctrl.dram.numReads::cpu.inst          1210                       # Number of read requests responded to by this memory (Count)
system.mem_ctrl.dram.numReads::cpu.data          3923                       # Number of read requests responded to by this memory (Count)
system.mem_ctrl.dram.numReads::total             5133                       # Number of read requests responded to by this memory (Count)
system.mem_ctrl.dram.bwRead::cpu.inst         8368832                       # Total read bandwidth from this memory ((Byte/Second))
system.mem_ctrl.dram.bwRead::cpu.data        27132997                       # Total read bandwidth from this memory ((Byte/Second))
system.mem_ctrl.dram.bwRead::total           35501829                       # Total read bandwidth from this memory ((Byte/Second))
system.mem_ctrl.dram.bwInstRead::cpu.inst      8368832                       # Instruction read bandwidth from this memory ((Byte/Second))
system.mem_ctrl.dram.bwInstRead::total        8368832                       # Instruction read bandwidth from this memory ((Byte/Second))
system.mem_ctrl.dram.bwTotal::cpu.inst        8368832                       # Total bandwidth to/from this memory ((Byte/Second))
system.mem_ctrl.dram.bwTotal::cpu.data       27132997                       # Total bandwidth to/from this memory ((Byte/Second))
system.mem_ctrl.dram.bwTotal::total          35501829                       # Total bandwidth to/from this memory ((Byte/Second))
system.mem_ctrl.dram.readBursts                  5133                       # Number of DRAM read bursts (Count)
system.mem_ctrl.dram.writeBursts                    0                       # Number of DRAM write bursts (Count)
system.mem_ctrl.dram.perBankRdBursts::0           279                       # Per bank write bursts (Count)
system.mem_ctrl.dram.perBankRdBursts::1           200                       # Per bank write bursts (Count)
system.mem_ctrl.dram.perBankRdBursts::2           392                       # Per bank write bursts (Count)
system.mem_ctrl.dram.perBankRdBursts::3           414                       # Per bank write bursts (Count)
system.mem_ctrl.dram.perBankRdBursts::4           384                       # Per bank write bursts (Count)
system.mem_ctrl.dram.perBankRdBursts::5           344                       # Per bank write bursts (Count)
system.mem_ctrl.dram.perBankRdBursts::6           322                       # Per bank write bursts (Count)
system.mem_ctrl.dram.perBankRdBursts::7           281                       # Per bank write bursts (Count)
system.mem_ctrl.dram.perBankRdBursts::8           239                       # Per bank write bursts (Count)
system.mem_ctrl.dram.perBankRdBursts::9           344                       # Per bank write bursts (Count)
system.mem_ctrl.dram.perBankRdBursts::10          369                       # Per bank write bursts (Count)
system.mem_ctrl.dram.perBankRdBursts::11          378                       # Per bank write bursts (Count)
system.mem_ctrl.dram.perBankRdBursts::12          366                       # Per bank write bursts (Count)
system.mem_ctrl.dram.perBankRdBursts::13          286                       # Per bank write bursts (Count)
system.mem_ctrl.dram.perBankRdBursts::14          282                       # Per bank write bursts (Count)
system.mem_ctrl.dram.perBankRdBursts::15          253                       # Per bank write bursts (Count)
system.mem_ctrl.dram.perBankWrBursts::0             0                       # Per bank write bursts (Count)
system.mem_ctrl.dram.perBankWrBursts::1             0                       # Per bank write bursts (Count)
system.mem_ctrl.dram.perBankWrBursts::2             0                       # Per bank write bursts (Count)
system.mem_ctrl.dram.perBankWrBursts::3             0                       # Per bank write bursts (Count)
system.mem_ctrl.dram.perBankWrBursts::4             0                       # Per bank write bursts (Count)
system.mem_ctrl.dram.perBankWrBursts::5             0                       # Per bank write bursts (Count)
system.mem_ctrl.dram.perBankWrBursts::6             0                       # Per bank write bursts (Count)
system.mem_ctrl.dram.perBankWrBursts::7             0                       # Per bank write bursts (Count)
system.mem_ctrl.dram.perBankWrBursts::8             0                       # Per bank write bursts (Count)
system.mem_ctrl.dram.perBankWrBursts::9             0                       # Per bank write bursts (Count)
system.mem_ctrl.dram.perBankWrBursts::10            0                       # Per bank write bursts (Count)
system.mem_ctrl.dram.perBankWrBursts::11            0                       # Per bank write bursts (Count)
system.mem_ctrl.dram.perBankWrBursts::12            0                       # Per bank write bursts (Count)
system.mem_ctrl.dram.perBankWrBursts::13            0                       # Per bank write bursts (Count)
system.mem_ctrl.dram.perBankWrBursts::14            0                       # Per bank write bursts (Count)
system.mem_ctrl.dram.perBankWrBursts::15            0                       # Per bank write bursts (Count)
system.mem_ctrl.dram.totQLat                 37788000                       # Total ticks spent queuing (Tick)
system.mem_ctrl.dram.totBusLat               25665000                       # Total ticks spent in databus transfers (Tick)
system.mem_ctrl.dram.totMemAccLat           134031750                       # Total ticks spent from burst creation until serviced by the DRAM (Tick)
system.mem_ctrl.dram.avgQLat                  7361.78                       # Average queueing delay per DRAM burst ((Tick/Count))
system.mem_ctrl.dram.avgBusLat                5000.00                       # Average bus latency per DRAM burst ((Tick/Count))
system.mem_ctrl.dram.avgMemAccLat            26111.78                       # Average memory access latency per DRAM burst ((Tick/Count))
system.mem_ctrl.dram.readRowHits                 4446                       # Number of row buffer hits during reads (Count)
system.mem_ctrl.dram.writeRowHits                   0                       # Number of row buffer hits during writes (Count)
system.mem_ctrl.dram.readRowHitRate             86.62                       # Row buffer hit rate for reads (Ratio)
system.mem_ctrl.dram.writeRowHitRate              nan                       # Row buffer hit rate for writes (Ratio)
system.mem_ctrl.dram.bytesPerActivate::samples          677                       # Bytes accessed per row activation (Byte)
system.mem_ctrl.dram.bytesPerActivate::mean   481.937962                       # Bytes accessed per row activation (Byte)
system.mem_ctrl.dram.bytesPerActivate::gmean   307.662569                       # Bytes accessed per row activation (Byte)
system.mem_ctrl.dram.bytesPerActivate::stdev   378.426049                       # Bytes accessed per row activation (Byte)
system.mem_ctrl.dram.bytesPerActivate::0-127          140     20.68%     20.68% # Bytes accessed per row activation (Byte)
system.mem_ctrl.dram.bytesPerActivate::128-255          128     18.91%     39.59% # Bytes accessed per row activation (Byte)
system.mem_ctrl.dram.bytesPerActivate::256-383           63      9.31%     48.89% # Bytes accessed per row activation (Byte)
system.mem_ctrl.dram.bytesPerActivate::384-511           37      5.47%     54.36% # Bytes accessed per row activation (Byte)
system.mem_ctrl.dram.bytesPerActivate::512-639           76     11.23%     65.58% # Bytes accessed per row activation (Byte)
system.mem_ctrl.dram.bytesPerActivate::640-767           31      4.58%     70.16% # Bytes accessed per row activation (Byte)
system.mem_ctrl.dram.bytesPerActivate::768-895           24      3.55%     73.71% # Bytes accessed per row activation (Byte)
system.mem_ctrl.dram.bytesPerActivate::896-1023           11      1.62%     75.33% # Bytes accessed per row activation (Byte)
system.mem_ctrl.dram.bytesPerActivate::1024-1151          167     24.67%    100.00% # Bytes accessed per row activation (Byte)
system.mem_ctrl.dram.bytesPerActivate::total          677                       # Bytes accessed per row activation (Byte)
system.mem_ctrl.dram.bytesRead                 328512                       # Total bytes read (Byte)
system.mem_ctrl.dram.bytesWritten                   0                       # Total bytes written (Byte)
system.mem_ctrl.dram.avgRdBW                35.501829                       # Average DRAM read bandwidth in MiBytes/s ((Byte/Second))
system.mem_ctrl.dram.avgWrBW                        0                       # Average DRAM write bandwidth in MiBytes/s ((Byte/Second))
system.mem_ctrl.dram.peakBW                  12800.00                       # Theoretical peak bandwidth in MiByte/s ((Byte/Second))
system.mem_ctrl.dram.busUtil                     0.28                       # Data bus utilization in percentage (Ratio)
system.mem_ctrl.dram.busUtilRead                 0.28                       # Data bus utilization in percentage for reads (Ratio)
system.mem_ctrl.dram.busUtilWrite                0.00                       # Data bus utilization in percentage for writes (Ratio)
system.mem_ctrl.dram.pageHitRate                86.62                       # Row buffer hit rate, read and write combined (Ratio)
system.mem_ctrl.dram.power_state.pwrStateResidencyTicks::UNDEFINED   9253382500                       # Cumulative time (in ticks) in various power states (Tick)
system.mem_ctrl.dram.rank0.actEnergy          2506140                       # Energy for activate commands per rank (pJ) (Joule)
system.mem_ctrl.dram.rank0.preEnergy          1313070                       # Energy for precharge commands per rank (pJ) (Joule)
system.mem_ctrl.dram.rank0.readEnergy        18678240                       # Energy for read commands per rank (pJ) (Joule)
system.mem_ctrl.dram.rank0.writeEnergy              0                       # Energy for write commands per rank (pJ) (Joule)
system.mem_ctrl.dram.rank0.refreshEnergy 730192320.000000                       # Energy for refresh commands per rank (pJ) (Joule)
system.mem_ctrl.dram.rank0.actBackEnergy    334950810                       # Energy for active background per rank (pJ) (Joule)
system.mem_ctrl.dram.rank0.preBackEnergy   3271235040                       # Energy for precharge background per rank (pJ) (Joule)
system.mem_ctrl.dram.rank0.actPowerDownEnergy            0                       # Energy for active power-down per rank (pJ) (Joule)
system.mem_ctrl.dram.rank0.prePowerDownEnergy            0                       # Energy for precharge power-down per rank (pJ) (Joule)
system.mem_ctrl.dram.rank0.selfRefreshEnergy            0                       # Energy for self refresh per rank (pJ) (Joule)
system.mem_ctrl.dram.rank0.totalEnergy     4358875620                       # Total energy per rank (pJ) (Joule)
system.mem_ctrl.dram.rank0.averagePower    471.057542                       # Core power per rank (mW) (Watt)
system.mem_ctrl.dram.rank0.totalIdleTime            0                       # Total Idle time Per DRAM Rank (Tick)
system.mem_ctrl.dram.rank0.pwrStateTime::IDLE   8500922250                       # Time in different power states (Tick)
system.mem_ctrl.dram.rank0.pwrStateTime::REF    308880000                       # Time in different power states (Tick)
system.mem_ctrl.dram.rank0.pwrStateTime::SREF            0                       # Time in different power states (Tick)
system.mem_ctrl.dram.rank0.pwrStateTime::PRE_PDN            0                       # Time in different power states (Tick)
system.mem_ctrl.dram.rank0.pwrStateTime::ACT    443580250                       # Time in different power states (Tick)
system.mem_ctrl.dram.rank0.pwrStateTime::ACT_PDN            0                       # Time in different power states (Tick)
system.mem_ctrl.dram.rank1.actEnergy          2399040                       # Energy for activate commands per rank (pJ) (Joule)
system.mem_ctrl.dram.rank1.preEnergy          1256145                       # Energy for precharge commands per rank (pJ) (Joule)
system.mem_ctrl.dram.rank1.readEnergy        17971380                       # Energy for read commands per rank (pJ) (Joule)
system.mem_ctrl.dram.rank1.writeEnergy              0                       # Energy for write commands per rank (pJ) (Joule)
system.mem_ctrl.dram.rank1.refreshEnergy 730192320.000000                       # Energy for refresh commands per rank (pJ) (Joule)
system.mem_ctrl.dram.rank1.actBackEnergy    298853280                       # Energy for active background per rank (pJ) (Joule)
system.mem_ctrl.dram.rank1.preBackEnergy   3301632960                       # Energy for precharge background per rank (pJ) (Joule)
system.mem_ctrl.dram.rank1.actPowerDownEnergy            0                       # Energy for active power-down per rank (pJ) (Joule)
system.mem_ctrl.dram.rank1.prePowerDownEnergy            0                       # Energy for precharge power-down per rank (pJ) (Joule)
system.mem_ctrl.dram.rank1.selfRefreshEnergy            0                       # Energy for self refresh per rank (pJ) (Joule)
system.mem_ctrl.dram.rank1.totalEnergy     4352305125                       # Total energy per rank (pJ) (Joule)
system.mem_ctrl.dram.rank1.averagePower    470.347478                       # Core power per rank (mW) (Watt)
system.mem_ctrl.dram.rank1.totalIdleTime            0                       # Total Idle time Per DRAM Rank (Tick)
system.mem_ctrl.dram.rank1.pwrStateTime::IDLE   8580495250                       # Time in different power states (Tick)
system.mem_ctrl.dram.rank1.pwrStateTime::REF    308880000                       # Time in different power states (Tick)
system.mem_ctrl.dram.rank1.pwrStateTime::SREF            0                       # Time in different power states (Tick)
system.mem_ctrl.dram.rank1.pwrStateTime::PRE_PDN            0                       # Time in different power states (Tick)
system.mem_ctrl.dram.rank1.pwrStateTime::ACT    364007250                       # Time in different power states (Tick)
system.mem_ctrl.dram.rank1.pwrStateTime::ACT_PDN            0                       # Time in different power states (Tick)
system.mem_ctrl.power_state.pwrStateResidencyTicks::UNDEFINED   9253382500                       # Cumulative time (in ticks) in various power states (Tick)
system.membus.transDist::ReadResp                3261                       # Transaction distribution (Count)
system.membus.transDist::CleanEvict                 4                       # Transaction distribution (Count)
system.membus.transDist::ReadExReq               1872                       # Transaction distribution (Count)
system.membus.transDist::ReadExResp              1872                       # Transaction distribution (Count)
system.membus.transDist::ReadSharedReq           3261                       # Transaction distribution (Count)
system.membus.pktCount_system.cpu.l2cache.mem_side_port::system.mem_ctrl.port        10270                       # Packet count per connected requestor and responder (Count)
system.membus.pktCount_system.cpu.l2cache.mem_side_port::total        10270                       # Packet count per connected requestor and responder (Count)
system.membus.pktCount::total                   10270                       # Packet count per connected requestor and responder (Count)
system.membus.pktSize_system.cpu.l2cache.mem_side_port::system.mem_ctrl.port       328512                       # Cumulative packet size per connected requestor and responder (Byte)
system.membus.pktSize_system.cpu.l2cache.mem_side_port::total       328512                       # Cumulative packet size per connected requestor and responder (Byte)
system.membus.pktSize::total                   328512                       # Cumulative packet size per connected requestor and responder (Byte)
system.membus.snoops                                0                       # Total snoops (Count)
system.membus.snoopTraffic                          0                       # Total snoop traffic (Byte)
system.membus.snoopFanout::samples               5133                       # Request fanout histogram (Count)
system.membus.snoopFanout::mean                     0                       # Request fanout histogram (Count)
system.membus.snoopFanout::stdev                    0                       # Request fanout histogram (Count)
system.membus.snoopFanout::underflows               0      0.00%      0.00% # Request fanout histogram (Count)
system.membus.snoopFanout::0                     5133    100.00%    100.00% # Request fanout histogram (Count)
system.membus.snoopFanout::1                        0      0.00%    100.00% # Request fanout histogram (Count)
system.membus.snoopFanout::overflows                0      0.00%    100.00% # Request fanout histogram (Count)
system.membus.snoopFanout::min_value                0                       # Request fanout histogram (Count)
system.membus.snoopFanout::max_value                0                       # Request fanout histogram (Count)
system.membus.snoopFanout::total                 5133                       # Request fanout histogram (Count)
system.membus.power_state.pwrStateResidencyTicks::UNDEFINED   9253382500                       # Cumulative time (in ticks) in various power states (Tick)
system.membus.reqLayer2.occupancy             2568500                       # Layer occupancy (ticks) (Tick)
system.membus.reqLayer2.utilization               0.0                       # Layer utilization (Ratio)
system.membus.respLayer0.occupancy           13978750                       # Layer occupancy (ticks) (Tick)
system.membus.respLayer0.utilization              0.0                       # Layer utilization (Ratio)
system.membus.snoop_filter.totRequests           5137                       # Total number of requests made to the snoop filter. (Count)
system.membus.snoop_filter.hitSingleRequests            4                       # Number of requests hitting in the snoop filter with a single holder of the requested data. (Count)
system.membus.snoop_filter.hitMultiRequests            0                       # Number of requests hitting in the snoop filter with multiple (>1) holders of the requested data. (Count)
system.membus.snoop_filter.totSnoops                0                       # Total number of snoops made to the snoop filter. (Count)
system.membus.snoop_filter.hitSingleSnoops            0                       # Number of snoops hitting in the snoop filter with a single holder of the requested data. (Count)
system.membus.snoop_filter.hitMultiSnoops            0                       # Number of snoops hitting in the snoop filter with multiple (>1) holders of the requested data. (Count)
system.workload.inst.arm                            0                       # number of arm instructions executed (Count)
system.workload.inst.quiesce                        0                       # number of quiesce instructions executed (Count)

---------- End Simulation Statistics   ----------
